<?xml version="1.0" encoding="UTF-8"?>
<additional>
    <!-- Konteks Indonesia: lalu lintas berjalan di kiri, pengemudi/stir berada di kanan. -->
    <vType id="car" vClass="passenger" length="4.50" minGap="2.50" maxSpeed="13.89" accel="2.60" decel="4.50" sigma="0.50" color="1,1,0"/>
    <vType id="motorcycle" vClass="motorcycle" length="2.00" minGap="1.00" maxSpeed="13.89" accel="3.00" decel="5.00" sigma="0.60" color="1,0.45,0"/>
</additional>
